* NGSPICE file created from gpio_vector.ext - technology: sky130A

* Black-box entry subcircuit for sky130_fd_sc_hd__fill_1 abstract view
.subckt sky130_fd_sc_hd__fill_1 VGND VNB VPB VPWR
.ends

* Black-box entry subcircuit for sky130_fd_sc_hd__decap_6 abstract view
.subckt sky130_fd_sc_hd__decap_6 VGND VNB VPB VPWR
.ends

* Black-box entry subcircuit for sky130_fd_sc_hd__dfrtp_1 abstract view
.subckt sky130_fd_sc_hd__dfrtp_1 CLK D RESET_B VGND VNB VPB VPWR Q
.ends

* Black-box entry subcircuit for sky130_fd_sc_hd__ebufn_2 abstract view
.subckt sky130_fd_sc_hd__ebufn_2 A TE_B VGND VNB VPB VPWR Z
.ends

* Black-box entry subcircuit for sky130_fd_sc_hd__inv_2 abstract view
.subckt sky130_fd_sc_hd__inv_2 A VGND VNB VPB VPWR Y
.ends

* Black-box entry subcircuit for sky130_fd_sc_hd__nand2b_1 abstract view
.subckt sky130_fd_sc_hd__nand2b_1 A_N B VGND VNB VPB VPWR Y
.ends

* Black-box entry subcircuit for sky130_fd_sc_hd__decap_3 abstract view
.subckt sky130_fd_sc_hd__decap_3 VGND VNB VPB VPWR
.ends

* Black-box entry subcircuit for sky130_fd_sc_hd__decap_4 abstract view
.subckt sky130_fd_sc_hd__decap_4 VGND VNB VPB VPWR
.ends

* Black-box entry subcircuit for sky130_fd_sc_hd__tapvpwrvgnd_1 abstract view
.subckt sky130_fd_sc_hd__tapvpwrvgnd_1 VGND VPWR
.ends

* Black-box entry subcircuit for sky130_fd_sc_hd__decap_8 abstract view
.subckt sky130_fd_sc_hd__decap_8 VGND VNB VPB VPWR
.ends

* Black-box entry subcircuit for sky130_fd_sc_hd__and2b_1 abstract view
.subckt sky130_fd_sc_hd__and2b_1 A_N B VGND VNB VPB VPWR X
.ends

* Black-box entry subcircuit for sky130_fd_sc_hd__fill_2 abstract view
.subckt sky130_fd_sc_hd__fill_2 VGND VNB VPB VPWR
.ends

* Black-box entry subcircuit for sky130_ef_sc_hd__decap_12 abstract view
.subckt sky130_ef_sc_hd__decap_12 VPWR VGND VPB VNB
.ends

* Black-box entry subcircuit for sky130_fd_sc_hd__buf_1 abstract view
.subckt sky130_fd_sc_hd__buf_1 A VGND VNB VPB VPWR X
.ends

* Black-box entry subcircuit for sky130_fd_sc_hd__clkbuf_16 abstract view
.subckt sky130_fd_sc_hd__clkbuf_16 A VGND VNB VPB VPWR X
.ends

* Black-box entry subcircuit for sky130_fd_sc_hd__mux2_1 abstract view
.subckt sky130_fd_sc_hd__mux2_1 A0 A1 S VGND VNB VPB VPWR X
.ends

* Black-box entry subcircuit for sky130_fd_sc_hd__a21o_1 abstract view
.subckt sky130_fd_sc_hd__a21o_1 A1 A2 B1 VGND VNB VPB VPWR X
.ends

* Black-box entry subcircuit for sky130_fd_sc_hd__nand2_1 abstract view
.subckt sky130_fd_sc_hd__nand2_1 A B VGND VNB VPB VPWR Y
.ends

* Black-box entry subcircuit for sky130_fd_sc_hd__o22ai_1 abstract view
.subckt sky130_fd_sc_hd__o22ai_1 A1 A2 B1 B2 VGND VNB VPB VPWR Y
.ends

* Black-box entry subcircuit for sky130_fd_sc_hd__and3b_1 abstract view
.subckt sky130_fd_sc_hd__and3b_1 A_N B C VGND VNB VPB VPWR X
.ends

* Black-box entry subcircuit for sky130_fd_sc_hd__o211a_1 abstract view
.subckt sky130_fd_sc_hd__o211a_1 A1 A2 B1 C1 VGND VNB VPB VPWR X
.ends

* Black-box entry subcircuit for sky130_fd_sc_hd__o211ai_1 abstract view
.subckt sky130_fd_sc_hd__o211ai_1 A1 A2 B1 C1 VGND VNB VPB VPWR Y
.ends

* Black-box entry subcircuit for sky130_fd_sc_hd__clkbuf_1 abstract view
.subckt sky130_fd_sc_hd__clkbuf_1 A VGND VNB VPB VPWR X
.ends

* Black-box entry subcircuit for sky130_fd_sc_hd__bufinv_16 abstract view
.subckt sky130_fd_sc_hd__bufinv_16 A VGND VNB VPB VPWR Y
.ends

* Black-box entry subcircuit for sky130_fd_sc_hd__and4bb_1 abstract view
.subckt sky130_fd_sc_hd__and4bb_1 A_N B_N C D VGND VNB VPB VPWR X
.ends

* Black-box entry subcircuit for sky130_fd_sc_hd__clkbuf_4 abstract view
.subckt sky130_fd_sc_hd__clkbuf_4 A VGND VNB VPB VPWR X
.ends

* Black-box entry subcircuit for sky130_fd_sc_hd__nor2_1 abstract view
.subckt sky130_fd_sc_hd__nor2_1 A B VGND VNB VPB VPWR Y
.ends

* Black-box entry subcircuit for sky130_fd_sc_hd__clkinvlp_4 abstract view
.subckt sky130_fd_sc_hd__clkinvlp_4 A VGND VNB VPB VPWR Y
.ends

* Black-box entry subcircuit for sky130_fd_sc_hd__clkbuf_8 abstract view
.subckt sky130_fd_sc_hd__clkbuf_8 A VGND VNB VPB VPWR X
.ends

* Black-box entry subcircuit for sky130_fd_sc_hd__ebufn_1 abstract view
.subckt sky130_fd_sc_hd__ebufn_1 A TE_B VGND VNB VPB VPWR Z
.ends

* Black-box entry subcircuit for sky130_fd_sc_hd__dfrtp_4 abstract view
.subckt sky130_fd_sc_hd__dfrtp_4 CLK D RESET_B VGND VNB VPB VPWR Q
.ends

* Black-box entry subcircuit for sky130_fd_sc_hd__a21boi_1 abstract view
.subckt sky130_fd_sc_hd__a21boi_1 A1 A2 B1_N VGND VNB VPB VPWR Y
.ends

* Black-box entry subcircuit for sky130_fd_sc_hd__o31ai_1 abstract view
.subckt sky130_fd_sc_hd__o31ai_1 A1 A2 A3 B1 VGND VNB VPB VPWR Y
.ends

* Black-box entry subcircuit for sky130_fd_sc_hd__or4bb_1 abstract view
.subckt sky130_fd_sc_hd__or4bb_1 A B C_N D_N VGND VNB VPB VPWR X
.ends

* Black-box entry subcircuit for sky130_fd_sc_hd__inv_8 abstract view
.subckt sky130_fd_sc_hd__inv_8 A VGND VNB VPB VPWR Y
.ends

* Black-box entry subcircuit for sky130_fd_sc_hd__clkbuf_2 abstract view
.subckt sky130_fd_sc_hd__clkbuf_2 A VGND VNB VPB VPWR X
.ends

* Black-box entry subcircuit for sky130_fd_sc_hd__o311a_1 abstract view
.subckt sky130_fd_sc_hd__o311a_1 A1 A2 A3 B1 C1 VGND VNB VPB VPWR X
.ends

* Black-box entry subcircuit for sky130_fd_sc_hd__o21bai_1 abstract view
.subckt sky130_fd_sc_hd__o21bai_1 A1 A2 B1_N VGND VNB VPB VPWR Y
.ends

* Black-box entry subcircuit for sky130_fd_sc_hd__buf_8 abstract view
.subckt sky130_fd_sc_hd__buf_8 A VGND VNB VPB VPWR X
.ends

* Black-box entry subcircuit for sky130_fd_sc_hd__dlymetal6s2s_1 abstract view
.subckt sky130_fd_sc_hd__dlymetal6s2s_1 A VGND VNB VPB VPWR X
.ends

* Black-box entry subcircuit for sky130_fd_sc_hd__or2_1 abstract view
.subckt sky130_fd_sc_hd__or2_1 A B VGND VNB VPB VPWR X
.ends

.subckt gpio_vector Data_in[0] Data_in[10] Data_in[11] Data_in[12] Data_in[13] Data_in[14]
+ Data_in[15] Data_in[1] Data_in[2] Data_in[3] Data_in[4] Data_in[5] Data_in[6] Data_in[7]
+ Data_in[8] Data_in[9] Data_out[0] Data_out[10] Data_out[11] Data_out[12] Data_out[13]
+ Data_out[14] Data_out[15] Data_out[1] Data_out[2] Data_out[3] Data_out[4] Data_out[5]
+ Data_out[6] Data_out[7] Data_out[8] Data_out[9] Enable Function[0] Function[10]
+ Function[11] Function[12] Function[13] Function[14] Function[15] Function[1] Function[2]
+ Function[3] Function[4] Function[5] Function[6] Function[7] Function[8] Function[9]
+ IRQ_INT[0] IRQ_INT[1] IRQ_PIN_CHANGE Int_Mask[0] Int_Mask[1] PIN_DATA[0] PIN_DATA[10]
+ PIN_DATA[11] PIN_DATA[12] PIN_DATA[13] PIN_DATA[14] PIN_DATA[15] PIN_DATA[1] PIN_DATA[2]
+ PIN_DATA[3] PIN_DATA[4] PIN_DATA[5] PIN_DATA[6] PIN_DATA[7] PIN_DATA[8] PIN_DATA[9]
+ Pin_Change_Mask[0] Pin_Change_Mask[10] Pin_Change_Mask[11] Pin_Change_Mask[12] Pin_Change_Mask[13]
+ Pin_Change_Mask[14] Pin_Change_Mask[15] Pin_Change_Mask[1] Pin_Change_Mask[2] Pin_Change_Mask[3]
+ Pin_Change_Mask[4] Pin_Change_Mask[5] Pin_Change_Mask[6] Pin_Change_Mask[7] Pin_Change_Mask[8]
+ Pin_Change_Mask[9] Pin_out[0] Pin_out[10] Pin_out[11] Pin_out[12] Pin_out[13] Pin_out[14]
+ Pin_out[15] Pin_out[1] Pin_out[2] Pin_out[3] Pin_out[4] Pin_out[5] Pin_out[6] Pin_out[7]
+ Pin_out[8] Pin_out[9] VGND VPWR clk reset
XFILLER_22_144 VGND VGND VPWR VPWR sky130_fd_sc_hd__fill_1
XFILLER_22_133 VGND VGND VPWR VPWR sky130_fd_sc_hd__decap_6
X_432_ clknet_3_6__leaf_clk _101_ _032_ VGND VGND VPWR VPWR gpio_pins_0_13\[4\].gpio_instance.pin_value
+ sky130_fd_sc_hd__dfrtp_1
X_501_ gpio_instance_15.pin_value _179_ VGND VGND VPWR VPWR PIN_DATA[15] sky130_fd_sc_hd__ebufn_2
X_363_ net38 VGND VGND VPWR VPWR _038_ sky130_fd_sc_hd__inv_2
XFILLER_13_111 VGND VGND VPWR VPWR sky130_fd_sc_hd__fill_1
X_294_ gpio_instance_14.enable_reg gpio_pins_0_13\[13\].gpio_instance.function_reg
+ VGND VGND VPWR VPWR _193_ sky130_fd_sc_hd__nand2b_1
XFILLER_3_67 VGND VGND VPWR VPWR sky130_fd_sc_hd__decap_3
XFILLER_3_78 VGND VGND VPWR VPWR sky130_fd_sc_hd__decap_4
X_346_ net38 VGND VGND VPWR VPWR _021_ sky130_fd_sc_hd__inv_2
XTAP_TAPCELL_ROW_20_131 VGND VPWR sky130_fd_sc_hd__tapvpwrvgnd_1
XFILLER_12_10 VGND VGND VPWR VPWR sky130_fd_sc_hd__decap_8
X_415_ clknet_3_3__leaf_clk _126_ _090_ VGND VGND VPWR VPWR gpio_pins_0_13\[13\].gpio_instance.Data_in
+ sky130_fd_sc_hd__dfrtp_1
XFILLER_10_136 VGND VGND VPWR VPWR sky130_fd_sc_hd__fill_1
X_277_ net17 gpio_instance_15.pin_change_mask_reg VGND VGND VPWR VPWR _166_ sky130_fd_sc_hd__and2b_1
X_200_ net24 VGND VGND VPWR VPWR _135_ sky130_fd_sc_hd__inv_2
X_329_ net38 VGND VGND VPWR VPWR _079_ sky130_fd_sc_hd__inv_2
XFILLER_0_79 VGND VGND VPWR VPWR sky130_fd_sc_hd__decap_4
XFILLER_0_57 VGND VGND VPWR VPWR sky130_fd_sc_hd__fill_2
XFILLER_9_55 VGND VGND VPWR VPWR sky130_fd_sc_hd__fill_1
XFILLER_18_97 VPWR VGND VPWR VGND sky130_ef_sc_hd__decap_12
XFILLER_18_53 VPWR VGND VPWR VGND sky130_ef_sc_hd__decap_12
XFILLER_29_128 VGND VGND VPWR VPWR sky130_fd_sc_hd__fill_1
XFILLER_28_161 VGND VGND VPWR VPWR sky130_fd_sc_hd__decap_4
XFILLER_31_53 VGND VGND VPWR VPWR sky130_fd_sc_hd__decap_3
XFILLER_31_42 VGND VGND VPWR VPWR sky130_fd_sc_hd__decap_4
XFILLER_17_109 VGND VGND VPWR VPWR sky130_fd_sc_hd__decap_3
Xoutput42 net42 VGND VGND VPWR VPWR Data_in[12] sky130_fd_sc_hd__buf_1
XFILLER_31_156 VPWR VGND VPWR VGND sky130_ef_sc_hd__decap_12
XFILLER_31_145 VGND VGND VPWR VPWR sky130_fd_sc_hd__fill_1
XFILLER_31_64 VGND VGND VPWR VPWR sky130_fd_sc_hd__fill_2
Xoutput53 net53 VGND VGND VPWR VPWR Data_in[8] sky130_fd_sc_hd__buf_1
Xoutput64 net64 VGND VGND VPWR VPWR Pin_out[15] sky130_fd_sc_hd__buf_1
XFILLER_16_186 VGND VGND VPWR VPWR sky130_fd_sc_hd__decap_4
XFILLER_16_153 VGND VGND VPWR VPWR sky130_fd_sc_hd__fill_1
X_431_ clknet_3_7__leaf_clk _100_ _031_ VGND VGND VPWR VPWR gpio_pins_0_13\[4\].gpio_instance.Data_in
+ sky130_fd_sc_hd__dfrtp_1
XTAP_TAPCELL_ROW_23_140 VGND VPWR sky130_fd_sc_hd__tapvpwrvgnd_1
X_362_ net38 VGND VGND VPWR VPWR _037_ sky130_fd_sc_hd__inv_2
Xclkbuf_3_6__f_clk clknet_0_clk VGND VGND VPWR VPWR clknet_3_6__leaf_clk sky130_fd_sc_hd__clkbuf_16
XFILLER_13_167 VGND VGND VPWR VPWR sky130_fd_sc_hd__fill_1
XFILLER_3_13 VGND VGND VPWR VPWR sky130_fd_sc_hd__decap_8
XFILLER_3_57 VGND VGND VPWR VPWR sky130_fd_sc_hd__fill_1
X_500_ gpio_instance_14.pin_value _178_ VGND VGND VPWR VPWR PIN_DATA[14] sky130_fd_sc_hd__ebufn_2
X_293_ PIN_DATA[14] gpio_instance_14.PIN_DATA_prev net17 VGND VGND VPWR VPWR _119_
+ sky130_fd_sc_hd__mux2_1
XFILLER_12_22 VGND VGND VPWR VPWR sky130_fd_sc_hd__decap_6
X_276_ _165_ gpio_pins_0_13\[9\].gpio_instance.pin_value _019_ VGND VGND VPWR VPWR
+ _124_ sky130_fd_sc_hd__a21o_1
X_414_ clknet_3_2__leaf_clk net25 _089_ VGND VGND VPWR VPWR gpio_pins_0_13\[1\].gpio_instance.function_reg
+ sky130_fd_sc_hd__dfrtp_1
XFILLER_5_152 VGND VGND VPWR VPWR sky130_fd_sc_hd__decap_3
XFILLER_5_185 VGND VGND VPWR VPWR sky130_fd_sc_hd__decap_4
X_345_ net38 VGND VGND VPWR VPWR _020_ sky130_fd_sc_hd__inv_2
XPHY_EDGE_ROW_21_Right_21 VGND VGND VPWR VPWR sky130_fd_sc_hd__decap_3
XPHY_EDGE_ROW_12_Right_12 VGND VGND VPWR VPWR sky130_fd_sc_hd__decap_3
XPHY_EDGE_ROW_30_Right_30 VGND VGND VPWR VPWR sky130_fd_sc_hd__decap_3
X_328_ net38 VGND VGND VPWR VPWR _078_ sky130_fd_sc_hd__inv_2
XFILLER_0_69 VGND VGND VPWR VPWR sky130_fd_sc_hd__decap_4
X_259_ _130_ net25 VGND VGND VPWR VPWR _159_ sky130_fd_sc_hd__nand2_1
XFILLER_9_45 VGND VGND VPWR VPWR sky130_fd_sc_hd__fill_1
XFILLER_18_65 VPWR VGND VPWR VGND sky130_ef_sc_hd__decap_12
XFILLER_28_173 VGND VGND VPWR VPWR sky130_fd_sc_hd__decap_6
XPHY_EDGE_ROW_16_Left_49 VGND VGND VPWR VPWR sky130_fd_sc_hd__decap_3
XFILLER_25_121 VGND VGND VPWR VPWR sky130_fd_sc_hd__fill_1
XFILLER_15_66 VPWR VGND VPWR VGND sky130_ef_sc_hd__decap_12
XPHY_EDGE_ROW_6_Right_6 VGND VGND VPWR VPWR sky130_fd_sc_hd__decap_3
XFILLER_31_124 VGND VGND VPWR VPWR sky130_fd_sc_hd__fill_1
XFILLER_16_121 VPWR VGND VPWR VGND sky130_ef_sc_hd__decap_12
Xoutput65 net65 VGND VGND VPWR VPWR Pin_out[1] sky130_fd_sc_hd__buf_1
Xoutput54 net54 VGND VGND VPWR VPWR Data_in[9] sky130_fd_sc_hd__buf_1
Xoutput43 net43 VGND VGND VPWR VPWR Data_in[13] sky130_fd_sc_hd__buf_1
XFILLER_22_168 VGND VGND VPWR VPWR sky130_fd_sc_hd__decap_4
XFILLER_13_113 VGND VGND VPWR VPWR sky130_fd_sc_hd__decap_4
X_361_ net38 VGND VGND VPWR VPWR _036_ sky130_fd_sc_hd__inv_2
X_430_ clknet_3_0__leaf_clk net29 _030_ VGND VGND VPWR VPWR gpio_pins_0_13\[5\].gpio_instance.function_reg
+ sky130_fd_sc_hd__dfrtp_1
X_292_ _130_ _132_ _173_ _175_ VGND VGND VPWR VPWR _120_ sky130_fd_sc_hd__o22ai_1
XFILLER_8_150 VGND VGND VPWR VPWR sky130_fd_sc_hd__decap_6
XPHY_EDGE_ROW_19_Left_52 VGND VGND VPWR VPWR sky130_fd_sc_hd__decap_3
XFILLER_6_109 VGND VGND VPWR VPWR sky130_fd_sc_hd__decap_8
X_413_ clknet_3_2__leaf_clk _011_ _088_ VGND VGND VPWR VPWR gpio_pins_0_13\[1\].gpio_instance.Pin_out
+ sky130_fd_sc_hd__dfrtp_1
X_275_ net17 net33 net16 VGND VGND VPWR VPWR _019_ sky130_fd_sc_hd__and3b_1
X_344_ net38 VGND VGND VPWR VPWR _094_ sky130_fd_sc_hd__inv_2
XFILLER_23_55 VGND VGND VPWR VPWR sky130_fd_sc_hd__fill_1
XFILLER_0_15 VPWR VGND VPWR VGND sky130_ef_sc_hd__decap_12
XFILLER_3_3 VGND VGND VPWR VPWR sky130_fd_sc_hd__fill_1
XPHY_EDGE_ROW_4_Left_37 VGND VGND VPWR VPWR sky130_fd_sc_hd__decap_3
X_258_ net26 PIN_DATA[2] _158_ _130_ VGND VGND VPWR VPWR _096_ sky130_fd_sc_hd__o211a_1
X_327_ net38 VGND VGND VPWR VPWR _077_ sky130_fd_sc_hd__inv_2
XFILLER_18_77 VGND VGND VPWR VPWR sky130_fd_sc_hd__decap_6
XFILLER_29_119 VGND VGND VPWR VPWR sky130_fd_sc_hd__fill_1
XFILLER_29_54 VGND VGND VPWR VPWR sky130_fd_sc_hd__fill_2
XPHY_EDGE_ROW_7_Left_40 VGND VGND VPWR VPWR sky130_fd_sc_hd__decap_3
XFILLER_6_25 VGND VGND VPWR VPWR sky130_fd_sc_hd__decap_3
XFILLER_16_133 VGND VGND VPWR VPWR sky130_fd_sc_hd__decap_6
XFILLER_15_78 VPWR VGND VPWR VGND sky130_ef_sc_hd__decap_12
XFILLER_15_23 VGND VGND VPWR VPWR sky130_fd_sc_hd__decap_8
Xoutput66 net66 VGND VGND VPWR VPWR Pin_out[2] sky130_fd_sc_hd__buf_1
Xoutput44 net44 VGND VGND VPWR VPWR Data_in[14] sky130_fd_sc_hd__buf_1
Xoutput55 net55 VGND VGND VPWR VPWR IRQ_INT[0] sky130_fd_sc_hd__buf_1
XFILLER_30_191 VGND VGND VPWR VPWR sky130_fd_sc_hd__fill_2
X_360_ net38 VGND VGND VPWR VPWR _035_ sky130_fd_sc_hd__inv_2
X_291_ net36 _134_ _174_ _172_ VGND VGND VPWR VPWR _175_ sky130_fd_sc_hd__o211ai_1
X_489_ gpio_pins_0_13\[5\].gpio_instance.Pin_out VGND VGND VPWR VPWR net69 sky130_fd_sc_hd__clkbuf_1
XTAP_TAPCELL_ROW_3_80 VGND VPWR sky130_fd_sc_hd__tapvpwrvgnd_1
X_412_ clknet_3_4__leaf_clk _125_ _087_ VGND VGND VPWR VPWR gpio_instance_15.pin_value
+ sky130_fd_sc_hd__dfrtp_1
X_343_ net38 VGND VGND VPWR VPWR _093_ sky130_fd_sc_hd__inv_2
X_274_ _130_ net33 VGND VGND VPWR VPWR _165_ sky130_fd_sc_hd__nand2_1
XPHY_EDGE_ROW_20_Left_53 VGND VGND VPWR VPWR sky130_fd_sc_hd__decap_3
XFILLER_23_23 VGND VGND VPWR VPWR sky130_fd_sc_hd__decap_3
XFILLER_0_49 VGND VGND VPWR VPWR sky130_fd_sc_hd__decap_3
XFILLER_0_27 VGND VGND VPWR VPWR sky130_fd_sc_hd__fill_1
XFILLER_2_113 VGND VGND VPWR VPWR sky130_fd_sc_hd__fill_2
XFILLER_29_3 VGND VGND VPWR VPWR sky130_fd_sc_hd__fill_2
X_257_ gpio_pins_0_13\[2\].gpio_instance.Data_in net26 VGND VGND VPWR VPWR _158_ sky130_fd_sc_hd__nand2b_1
X_326_ net38 VGND VGND VPWR VPWR _076_ sky130_fd_sc_hd__inv_2
XTAP_TAPCELL_ROW_0_70 VGND VPWR sky130_fd_sc_hd__tapvpwrvgnd_1
XFILLER_9_69 VGND VGND VPWR VPWR sky130_fd_sc_hd__decap_3
X_309_ gpio_instance_14.enable_reg gpio_instance_14.function_reg VGND VGND VPWR VPWR
+ _178_ sky130_fd_sc_hd__nand2b_1
XFILLER_1_92 VGND VGND VPWR VPWR sky130_fd_sc_hd__fill_1
XFILLER_13_6 VGND VGND VPWR VPWR sky130_fd_sc_hd__fill_2
Xoutput67 net67 VGND VGND VPWR VPWR Pin_out[3] sky130_fd_sc_hd__buf_1
XFILLER_25_189 VGND VGND VPWR VPWR sky130_fd_sc_hd__fill_1
Xoutput45 net45 VGND VGND VPWR VPWR Data_in[15] sky130_fd_sc_hd__buf_1
Xoutput56 net56 VGND VGND VPWR VPWR IRQ_INT[1] sky130_fd_sc_hd__buf_1
XTAP_TAPCELL_ROW_32_165 VGND VPWR sky130_fd_sc_hd__tapvpwrvgnd_1
X_488_ gpio_pins_0_13\[4\].gpio_instance.Pin_out VGND VGND VPWR VPWR net68 sky130_fd_sc_hd__clkbuf_1
XFILLER_3_49 VGND VGND VPWR VPWR sky130_fd_sc_hd__decap_6
X_290_ gpio_instance_14.PIN_DATA_prev gpio_instance_14.int_mask_reg\[1\] PIN_DATA[14]
+ VGND VGND VPWR VPWR _174_ sky130_fd_sc_hd__a21o_1
X_411_ clknet_3_5__leaf_clk net18 _086_ VGND VGND VPWR VPWR gpio_pins_0_13\[0\].gpio_instance.function_reg
+ sky130_fd_sc_hd__dfrtp_1
X_273_ _164_ gpio_instance_15.pin_value _005_ VGND VGND VPWR VPWR _125_ sky130_fd_sc_hd__a21o_1
X_342_ net38 VGND VGND VPWR VPWR _092_ sky130_fd_sc_hd__inv_2
XFILLER_12_47 VGND VGND VPWR VPWR sky130_fd_sc_hd__fill_1
XTAP_TAPCELL_ROW_11_102 VGND VPWR sky130_fd_sc_hd__tapvpwrvgnd_1
XFILLER_5_133 VPWR VGND VPWR VGND sky130_ef_sc_hd__decap_12
XFILLER_5_166 VGND VGND VPWR VPWR sky130_fd_sc_hd__fill_2
XFILLER_23_57 VGND VGND VPWR VPWR sky130_fd_sc_hd__fill_2
XFILLER_4_81 VGND VGND VPWR VPWR sky130_fd_sc_hd__decap_3
X_256_ _157_ gpio_pins_0_13\[2\].gpio_instance.pin_value _012_ VGND VGND VPWR VPWR
+ _097_ sky130_fd_sc_hd__a21o_1
X_325_ net38 VGND VGND VPWR VPWR _075_ sky130_fd_sc_hd__inv_2
XTAP_TAPCELL_ROW_0_71 VGND VPWR sky130_fd_sc_hd__tapvpwrvgnd_1
Xclkload0 clknet_3_1__leaf_clk VGND VGND VPWR VPWR clkload0/Y sky130_fd_sc_hd__bufinv_16
X_308_ gpio_instance_14.enable_reg gpio_instance_15.function_reg VGND VGND VPWR VPWR
+ _179_ sky130_fd_sc_hd__nand2b_1
X_239_ _130_ net29 VGND VGND VPWR VPWR _151_ sky130_fd_sc_hd__nand2_1
XFILLER_29_45 VGND VGND VPWR VPWR sky130_fd_sc_hd__decap_3
XFILLER_29_12 VGND VGND VPWR VPWR sky130_fd_sc_hd__fill_1
XFILLER_28_110 VGND VGND VPWR VPWR sky130_fd_sc_hd__decap_6
XFILLER_20_58 VPWR VGND VPWR VGND sky130_ef_sc_hd__decap_12
XFILLER_31_46 VGND VGND VPWR VPWR sky130_fd_sc_hd__fill_1
XFILLER_25_113 VGND VGND VPWR VPWR sky130_fd_sc_hd__decap_8
Xoutput46 net46 VGND VGND VPWR VPWR Data_in[1] sky130_fd_sc_hd__buf_1
Xoutput57 net57 VGND VGND VPWR VPWR IRQ_PIN_CHANGE sky130_fd_sc_hd__buf_1
Xoutput68 net68 VGND VGND VPWR VPWR Pin_out[4] sky130_fd_sc_hd__buf_1
XFILLER_31_116 VGND VGND VPWR VPWR sky130_fd_sc_hd__decap_8
XPHY_EDGE_ROW_28_Right_28 VGND VGND VPWR VPWR sky130_fd_sc_hd__decap_3
XPHY_EDGE_ROW_19_Right_19 VGND VGND VPWR VPWR sky130_fd_sc_hd__decap_3
Xclkbuf_3_1__f_clk clknet_0_clk VGND VGND VPWR VPWR clknet_3_1__leaf_clk sky130_fd_sc_hd__clkbuf_16
XTAP_TAPCELL_ROW_32_166 VGND VPWR sky130_fd_sc_hd__tapvpwrvgnd_1
XFILLER_26_79 VGND VGND VPWR VPWR sky130_fd_sc_hd__decap_4
XFILLER_21_182 VGND VGND VPWR VPWR sky130_fd_sc_hd__fill_1
XFILLER_13_105 VGND VGND VPWR VPWR sky130_fd_sc_hd__decap_6
X_487_ gpio_pins_0_13\[3\].gpio_instance.Pin_out VGND VGND VPWR VPWR net67 sky130_fd_sc_hd__clkbuf_1
XTAP_TAPCELL_ROW_14_111 VGND VPWR sky130_fd_sc_hd__tapvpwrvgnd_1
X_410_ clknet_3_5__leaf_clk _006_ _085_ VGND VGND VPWR VPWR gpio_pins_0_13\[0\].gpio_instance.Pin_out
+ sky130_fd_sc_hd__dfrtp_1
X_272_ net17 net37 net24 net7 VGND VGND VPWR VPWR _005_ sky130_fd_sc_hd__and4bb_1
XTAP_TAPCELL_ROW_11_103 VGND VPWR sky130_fd_sc_hd__tapvpwrvgnd_1
X_341_ net38 VGND VGND VPWR VPWR _091_ sky130_fd_sc_hd__inv_2
XFILLER_5_145 VGND VGND VPWR VPWR sky130_fd_sc_hd__fill_2
XFILLER_5_189 VGND VGND VPWR VPWR sky130_fd_sc_hd__fill_1
X_255_ net17 net26 net9 VGND VGND VPWR VPWR _012_ sky130_fd_sc_hd__and3b_1
X_324_ net38 VGND VGND VPWR VPWR _074_ sky130_fd_sc_hd__inv_2
XFILLER_0_29 VPWR VGND VPWR VGND sky130_ef_sc_hd__decap_12
XFILLER_9_49 VGND VGND VPWR VPWR sky130_fd_sc_hd__decap_6
XFILLER_1_192 VGND VGND VPWR VPWR sky130_fd_sc_hd__fill_1
Xclkload1 clknet_3_2__leaf_clk VGND VGND VPWR VPWR clkload1/X sky130_fd_sc_hd__clkbuf_4
X_238_ net30 PIN_DATA[6] _150_ _130_ VGND VGND VPWR VPWR _104_ sky130_fd_sc_hd__o211a_1
X_307_ gpio_instance_14.enable_reg gpio_pins_0_13\[0\].gpio_instance.function_reg
+ VGND VGND VPWR VPWR _180_ sky130_fd_sc_hd__nand2b_1
XFILLER_29_57 VGND VGND VPWR VPWR sky130_fd_sc_hd__fill_2
XFILLER_19_188 VGND VGND VPWR VPWR sky130_fd_sc_hd__fill_2
XFILLER_19_111 VGND VGND VPWR VPWR sky130_fd_sc_hd__fill_1
XFILLER_6_17 VGND VGND VPWR VPWR sky130_fd_sc_hd__decap_8
Xoutput58 net58 VGND VGND VPWR VPWR Pin_out[0] sky130_fd_sc_hd__buf_1
XFILLER_31_139 VGND VGND VPWR VPWR sky130_fd_sc_hd__decap_6
XFILLER_31_69 VGND VGND VPWR VPWR sky130_fd_sc_hd__decap_3
Xoutput47 net47 VGND VGND VPWR VPWR Data_in[2] sky130_fd_sc_hd__buf_1
XFILLER_24_180 VGND VGND VPWR VPWR sky130_fd_sc_hd__decap_8
Xoutput69 net69 VGND VGND VPWR VPWR Pin_out[5] sky130_fd_sc_hd__buf_1
XTAP_TAPCELL_ROW_32_167 VGND VPWR sky130_fd_sc_hd__tapvpwrvgnd_1
XFILLER_30_161 VGND VGND VPWR VPWR sky130_fd_sc_hd__decap_4
XFILLER_22_139 VGND VGND VPWR VPWR sky130_fd_sc_hd__fill_1
XTAP_TAPCELL_ROW_17_120 VGND VPWR sky130_fd_sc_hd__tapvpwrvgnd_1
XFILLER_7_93 VPWR VGND VPWR VGND sky130_ef_sc_hd__decap_12
XFILLER_13_117 VGND VGND VPWR VPWR sky130_fd_sc_hd__fill_1
XFILLER_32_90 VGND VGND VPWR VPWR sky130_fd_sc_hd__decap_4
X_486_ gpio_pins_0_13\[2\].gpio_instance.Pin_out VGND VGND VPWR VPWR net66 sky130_fd_sc_hd__clkbuf_1
XTAP_TAPCELL_ROW_14_112 VGND VPWR sky130_fd_sc_hd__tapvpwrvgnd_1
XFILLER_27_90 VGND VGND VPWR VPWR sky130_fd_sc_hd__fill_2
X_271_ net24 _163_ VGND VGND VPWR VPWR _164_ sky130_fd_sc_hd__nand2_1
XTAP_TAPCELL_ROW_11_104 VGND VPWR sky130_fd_sc_hd__tapvpwrvgnd_1
X_340_ net38 VGND VGND VPWR VPWR _090_ sky130_fd_sc_hd__inv_2
X_469_ gpio_pins_0_13\[3\].gpio_instance.Data_in VGND VGND VPWR VPWR net48 sky130_fd_sc_hd__clkbuf_1
XFILLER_4_94 VGND VGND VPWR VPWR sky130_fd_sc_hd__decap_8
X_254_ _130_ net26 VGND VGND VPWR VPWR _157_ sky130_fd_sc_hd__nand2_1
XFILLER_13_81 VPWR VGND VPWR VGND sky130_ef_sc_hd__decap_12
XFILLER_2_105 VGND VGND VPWR VPWR sky130_fd_sc_hd__decap_8
X_323_ net38 VGND VGND VPWR VPWR _073_ sky130_fd_sc_hd__inv_2
XPHY_EDGE_ROW_24_Left_57 VGND VGND VPWR VPWR sky130_fd_sc_hd__decap_3
XFILLER_18_15 VPWR VGND VPWR VGND sky130_ef_sc_hd__decap_12
Xclkload2 clknet_3_3__leaf_clk VGND VGND VPWR VPWR clkload2/Y sky130_fd_sc_hd__bufinv_16
X_237_ gpio_pins_0_13\[6\].gpio_instance.Data_in net30 VGND VGND VPWR VPWR _150_ sky130_fd_sc_hd__nand2b_1
X_306_ gpio_instance_14.enable_reg gpio_pins_0_13\[1\].gpio_instance.function_reg
+ VGND VGND VPWR VPWR _181_ sky130_fd_sc_hd__nand2b_1
XFILLER_29_25 VPWR VGND VPWR VGND sky130_ef_sc_hd__decap_12
XFILLER_19_167 VGND VGND VPWR VPWR sky130_fd_sc_hd__fill_1
XPHY_EDGE_ROW_27_Left_60 VGND VGND VPWR VPWR sky130_fd_sc_hd__decap_3
XPHY_EDGE_ROW_11_Left_44 VGND VGND VPWR VPWR sky130_fd_sc_hd__decap_3
XFILLER_31_37 VGND VGND VPWR VPWR sky130_fd_sc_hd__fill_2
XFILLER_31_15 VGND VGND VPWR VPWR sky130_fd_sc_hd__fill_2
Xoutput48 net48 VGND VGND VPWR VPWR Data_in[3] sky130_fd_sc_hd__buf_1
Xoutput59 net59 VGND VGND VPWR VPWR Pin_out[10] sky130_fd_sc_hd__buf_1
XPHY_EDGE_ROW_1_Right_1 VGND VGND VPWR VPWR sky130_fd_sc_hd__decap_3
XTAP_TAPCELL_ROW_32_168 VGND VPWR sky130_fd_sc_hd__tapvpwrvgnd_1
XFILLER_21_81 VPWR VGND VPWR VGND sky130_ef_sc_hd__decap_12
XTAP_TAPCELL_ROW_17_121 VGND VPWR sky130_fd_sc_hd__tapvpwrvgnd_1
XFILLER_15_181 VGND VGND VPWR VPWR sky130_fd_sc_hd__decap_4
XFILLER_7_50 VGND VGND VPWR VPWR sky130_fd_sc_hd__decap_6
XFILLER_26_26 VGND VGND VPWR VPWR sky130_fd_sc_hd__fill_2
XFILLER_13_129 VGND VGND VPWR VPWR sky130_fd_sc_hd__fill_2
XTAP_TAPCELL_ROW_14_113 VGND VPWR sky130_fd_sc_hd__tapvpwrvgnd_1
XFILLER_12_173 VGND VGND VPWR VPWR sky130_fd_sc_hd__fill_2
X_485_ gpio_pins_0_13\[1\].gpio_instance.Pin_out VGND VGND VPWR VPWR net65 sky130_fd_sc_hd__clkbuf_1
XFILLER_8_177 VGND VGND VPWR VPWR sky130_fd_sc_hd__decap_8
X_270_ net17 net37 VGND VGND VPWR VPWR _163_ sky130_fd_sc_hd__nor2_1
XFILLER_5_158 VGND VGND VPWR VPWR sky130_fd_sc_hd__decap_8
XFILLER_5_169 VGND VGND VPWR VPWR sky130_fd_sc_hd__decap_4
X_468_ gpio_pins_0_13\[2\].gpio_instance.Data_in VGND VGND VPWR VPWR net47 sky130_fd_sc_hd__clkbuf_1
X_399_ clknet_3_1__leaf_clk net34 _074_ VGND VGND VPWR VPWR gpio_instance_14.int_mask_reg\[0\]
+ sky130_fd_sc_hd__dfrtp_1
XFILLER_4_73 VGND VGND VPWR VPWR sky130_fd_sc_hd__decap_8
X_322_ net38 VGND VGND VPWR VPWR _072_ sky130_fd_sc_hd__inv_2
XFILLER_9_18 VGND VGND VPWR VPWR sky130_fd_sc_hd__decap_6
X_253_ net27 PIN_DATA[3] _156_ _130_ VGND VGND VPWR VPWR _098_ sky130_fd_sc_hd__o211a_1
Xclkbuf_3_7__f_clk clknet_0_clk VGND VGND VPWR VPWR clknet_3_7__leaf_clk sky130_fd_sc_hd__clkbuf_16
XFILLER_13_93 VPWR VGND VPWR VGND sky130_ef_sc_hd__decap_12
Xclkload3 clknet_3_4__leaf_clk VGND VGND VPWR VPWR clkload3/Y sky130_fd_sc_hd__clkinvlp_4
XFILLER_18_27 VGND VGND VPWR VPWR sky130_fd_sc_hd__fill_1
X_236_ _149_ gpio_pins_0_13\[6\].gpio_instance.pin_value _016_ VGND VGND VPWR VPWR
+ _105_ sky130_fd_sc_hd__a21o_1
X_305_ gpio_instance_14.enable_reg gpio_pins_0_13\[2\].gpio_instance.function_reg
+ VGND VGND VPWR VPWR _182_ sky130_fd_sc_hd__nand2b_1
XFILLER_1_96 VGND VGND VPWR VPWR sky130_fd_sc_hd__fill_1
XFILLER_29_37 VGND VGND VPWR VPWR sky130_fd_sc_hd__decap_8
XFILLER_28_124 VPWR VGND VPWR VGND sky130_ef_sc_hd__decap_12
XFILLER_19_113 VPWR VGND VPWR VGND sky130_ef_sc_hd__decap_12
X_219_ _142_ gpio_pins_0_13\[0\].gpio_instance.pin_value _006_ VGND VGND VPWR VPWR
+ _112_ sky130_fd_sc_hd__a21o_1
XFILLER_19_81 VPWR VGND VPWR VGND sky130_ef_sc_hd__decap_12
Xoutput49 net49 VGND VGND VPWR VPWR Data_in[4] sky130_fd_sc_hd__buf_1
XFILLER_21_93 VPWR VGND VPWR VGND sky130_ef_sc_hd__decap_12
XTAP_TAPCELL_ROW_17_122 VGND VPWR sky130_fd_sc_hd__tapvpwrvgnd_1
Xclkbuf_0_clk clk VGND VGND VPWR VPWR clknet_0_clk sky130_fd_sc_hd__clkbuf_16
XTAP_TAPCELL_ROW_32_169 VGND VPWR sky130_fd_sc_hd__tapvpwrvgnd_1
XFILLER_30_174 VGND VGND VPWR VPWR sky130_fd_sc_hd__decap_8
XPHY_EDGE_ROW_24_Right_24 VGND VGND VPWR VPWR sky130_fd_sc_hd__decap_3
XPHY_EDGE_ROW_15_Right_15 VGND VGND VPWR VPWR sky130_fd_sc_hd__decap_3
X_484_ gpio_pins_0_13\[0\].gpio_instance.Pin_out VGND VGND VPWR VPWR net58 sky130_fd_sc_hd__clkbuf_1
XFILLER_16_71 VPWR VGND VPWR VGND sky130_ef_sc_hd__decap_12
XFILLER_12_141 VGND VGND VPWR VPWR sky130_fd_sc_hd__fill_1
XFILLER_8_156 VGND VGND VPWR VPWR sky130_fd_sc_hd__fill_1
XFILLER_12_29 VPWR VGND VPWR VGND sky130_ef_sc_hd__decap_12
XFILLER_12_18 VGND VGND VPWR VPWR sky130_fd_sc_hd__fill_1
X_467_ gpio_pins_0_13\[1\].gpio_instance.Data_in VGND VGND VPWR VPWR net46 sky130_fd_sc_hd__clkbuf_1
XFILLER_4_85 VGND VGND VPWR VPWR sky130_fd_sc_hd__decap_6
XFILLER_4_181 VGND VGND VPWR VPWR sky130_fd_sc_hd__fill_1
X_398_ clknet_3_1__leaf_clk _120_ _073_ VGND VGND VPWR VPWR gpio_instance_14.irq_detected
+ sky130_fd_sc_hd__dfrtp_1
X_252_ gpio_pins_0_13\[3\].gpio_instance.Data_in net27 VGND VGND VPWR VPWR _156_ sky130_fd_sc_hd__nand2b_1
XFILLER_1_162 VGND VGND VPWR VPWR sky130_fd_sc_hd__decap_6
XFILLER_1_140 VPWR VGND VPWR VGND sky130_ef_sc_hd__decap_12
X_321_ net38 VGND VGND VPWR VPWR _071_ sky130_fd_sc_hd__inv_2
X_235_ net17 net30 net13 VGND VGND VPWR VPWR _016_ sky130_fd_sc_hd__and3b_1
Xclkload4 clknet_3_5__leaf_clk VGND VGND VPWR VPWR clkload4/X sky130_fd_sc_hd__clkbuf_8
X_304_ gpio_instance_14.enable_reg gpio_pins_0_13\[3\].gpio_instance.function_reg
+ VGND VGND VPWR VPWR _183_ sky130_fd_sc_hd__nand2b_1
XFILLER_1_6 VPWR VGND VPWR VGND sky130_ef_sc_hd__decap_12
XFILLER_28_136 VGND VGND VPWR VPWR sky130_fd_sc_hd__decap_4
XFILLER_32_3 VPWR VGND VPWR VGND sky130_ef_sc_hd__decap_12
XFILLER_27_191 VGND VGND VPWR VPWR sky130_fd_sc_hd__fill_2
X_218_ net17 net18 net1 VGND VGND VPWR VPWR _006_ sky130_fd_sc_hd__and3b_1
XFILLER_19_169 VPWR VGND VPWR VGND sky130_ef_sc_hd__decap_12
XFILLER_19_125 VGND VGND VPWR VPWR sky130_fd_sc_hd__decap_3
XFILLER_19_93 VPWR VGND VPWR VGND sky130_ef_sc_hd__decap_12
Xoutput39 net39 VGND VGND VPWR VPWR Data_in[0] sky130_fd_sc_hd__buf_1
XFILLER_16_139 VGND VGND VPWR VPWR sky130_fd_sc_hd__fill_1
XFILLER_22_109 VPWR VGND VPWR VGND sky130_ef_sc_hd__decap_12
XFILLER_21_186 VGND VGND VPWR VPWR sky130_fd_sc_hd__decap_4
XFILLER_16_83 VGND VGND VPWR VPWR sky130_fd_sc_hd__fill_1
X_483_ gpio_instance_15.IRQ_INT VGND VGND VPWR VPWR net56 sky130_fd_sc_hd__clkbuf_1
XTAP_TAPCELL_ROW_20_129 VGND VPWR sky130_fd_sc_hd__tapvpwrvgnd_1
XFILLER_12_186 VGND VGND VPWR VPWR sky130_fd_sc_hd__fill_1
X_466_ gpio_pins_0_13\[0\].gpio_instance.Data_in VGND VGND VPWR VPWR net39 sky130_fd_sc_hd__clkbuf_1
X_397_ clknet_3_0__leaf_clk net36 _072_ VGND VGND VPWR VPWR gpio_instance_14.pin_change_mask_reg
+ sky130_fd_sc_hd__dfrtp_1
X_251_ _155_ gpio_pins_0_13\[3\].gpio_instance.pin_value _013_ VGND VGND VPWR VPWR
+ _099_ sky130_fd_sc_hd__a21o_1
X_320_ net38 VGND VGND VPWR VPWR _070_ sky130_fd_sc_hd__inv_2
X_449_ clknet_3_7__leaf_clk _110_ _049_ VGND VGND VPWR VPWR gpio_pins_0_13\[8\].gpio_instance.pin_value
+ sky130_fd_sc_hd__dfrtp_1
XFILLER_18_29 VPWR VGND VPWR VGND sky130_ef_sc_hd__decap_12
XTAP_TAPCELL_ROW_9_96 VGND VPWR sky130_fd_sc_hd__tapvpwrvgnd_1
Xclkload5 clknet_3_6__leaf_clk VGND VGND VPWR VPWR clkload5/Y sky130_fd_sc_hd__bufinv_16
X_234_ _130_ net30 VGND VGND VPWR VPWR _149_ sky130_fd_sc_hd__nand2_1
X_303_ gpio_instance_14.enable_reg gpio_pins_0_13\[4\].gpio_instance.function_reg
+ VGND VGND VPWR VPWR _184_ sky130_fd_sc_hd__nand2b_1
XFILLER_27_6 VGND VGND VPWR VPWR sky130_fd_sc_hd__decap_4
XFILLER_24_83 VGND VGND VPWR VPWR sky130_fd_sc_hd__fill_1
XFILLER_1_54 VGND VGND VPWR VPWR sky130_fd_sc_hd__fill_2
X_217_ _130_ net18 VGND VGND VPWR VPWR _142_ sky130_fd_sc_hd__nand2_1
XFILLER_19_159 VGND VGND VPWR VPWR sky130_fd_sc_hd__decap_8
XFILLER_19_148 VGND VGND VPWR VPWR sky130_fd_sc_hd__decap_6
XFILLER_30_165 VGND VGND VPWR VPWR sky130_fd_sc_hd__fill_1
XPHY_EDGE_ROW_15_Left_48 VGND VGND VPWR VPWR sky130_fd_sc_hd__decap_3
XFILLER_26_29 VGND VGND VPWR VPWR sky130_fd_sc_hd__fill_2
XTAP_TAPCELL_ROW_23_138 VGND VPWR sky130_fd_sc_hd__tapvpwrvgnd_1
XFILLER_21_176 VGND VGND VPWR VPWR sky130_fd_sc_hd__decap_6
XFILLER_21_165 VGND VGND VPWR VPWR sky130_fd_sc_hd__decap_3
XPHY_EDGE_ROW_5_Right_5 VGND VGND VPWR VPWR sky130_fd_sc_hd__decap_3
XFILLER_32_83 VGND VGND VPWR VPWR sky130_fd_sc_hd__fill_1
XFILLER_12_165 VGND VGND VPWR VPWR sky130_fd_sc_hd__decap_8
XFILLER_8_103 VPWR VGND VPWR VGND sky130_ef_sc_hd__decap_12
X_482_ gpio_instance_14.IRQ_INT VGND VGND VPWR VPWR net55 sky130_fd_sc_hd__clkbuf_1
X_465_ clknet_3_7__leaf_clk _118_ _065_ VGND VGND VPWR VPWR gpio_pins_0_13\[12\].gpio_instance.pin_value
+ sky130_fd_sc_hd__dfrtp_1
X_396_ clknet_3_0__leaf_clk _000_ _071_ VGND VGND VPWR VPWR gpio_instance_14.Data_in
+ sky130_fd_sc_hd__dfrtp_1
XFILLER_4_21 VGND VGND VPWR VPWR sky130_fd_sc_hd__decap_6