*SPEF "ieee 1481-1999"
*DESIGN "gpio_vector"
*DATE "18:39:32 Thursday May 15, 2025"
*VENDOR "The OpenROAD Project"
*PROGRAM "OpenROAD"
*VERSION "v2.0-16235-gedf00dff9"
*DESIGN_FLOW "NAME_SCOPE LOCAL" "PIN_CAP NONE"
*DIVIDER /
*DELIMITER :
*BUS_DELIMITER []
*T_UNIT 1 NS
*C_UNIT 1 PF
*R_UNIT 1 OHM
*L_UNIT 1 HENRY

*NAME_MAP
*1 Data_in[0]
*2 Data_in[10]
*3 Data_in[11]
*4 Data_in[12]
*5 Data_in[13]
*6 Data_in[14]
*7 Data_in[15]
*8 Data_in[1]
*9 Data_in[2]
*10 Data_in[3]
*11 Data_in[4]
*12 Data_in[5]
*13 Data_in[6]
*14 Data_in[7]
*15 Data_in[8]
*16 Data_in[9]
*17 Data_out[0]
*18 Data_out[10]
*19 Data_out[11]
*20 Data_out[12]
*21 Data_out[13]
*22 Data_out[14]
*23 Data_out[15]
*24 Data_out[1]
*25 Data_out[2]
*26 Data_out[3]
*27 Data_out[4]
*28 Data_out[5]
*29 Data_out[6]
*30 Data_out[7]
*31 Data_out[8]
*32 Data_out[9]
*33 Enable
*34 Function[0]
*35 Function[10]
*36 Function[11]
*37 Function[12]
*38 Function[13]
*39 Function[14]
*40 Function[15]
*41 Function[1]
*42 Function[2]
*43 Function[3]
*44 Function[4]
*45 Function[5]
*46 Function[6]
*47 Function[7]
*48 Function[8]
*49 Function[9]
*50 IRQ_INT[0]
*51 IRQ_INT[1]
*52 IRQ_PIN_CHANGE
*53 Int_Mask[0]
*54 Int_Mask[1]
*55 PIN_DATA[0]
*56 PIN_DATA[10]
*57 PIN_DATA[11]
*58 PIN_DATA[12]
*59 PIN_DATA[13]
*60 PIN_DATA[14]
*61 PIN_DATA[15]
*62 PIN_DATA[1]
*63 PIN_DATA[2]
*64 PIN_DATA[3]
*65 PIN_DATA[4]
*66 PIN_DATA[5]
*67 PIN_DATA[6]
*68 PIN_DATA[7]
*69 PIN_DATA[8]
*70 PIN_DATA[9]
*71 Pin_Change_Mask[0]
*72 Pin_Change_Mask[10]
*73 Pin_Change_Mask[11]
*74 Pin_Change_Mask[12]
*75 Pin_Change_Mask[13]
*76 Pin_Change_Mask[14]
*77 Pin_Change_Mask[15]
*78 Pin_Change_Mask[1]
*79 Pin_Change_Mask[2]
*80 Pin_Change_Mask[3]
*81 Pin_Change_Mask[4]
*82 Pin_Change_Mask[5]
*83 Pin_Change_Mask[6]
*84 Pin_Change_Mask[7]
*85 Pin_Change_Mask[8]
*86 Pin_Change_Mask[9]
*87 Pin_out[0]
*88 Pin_out[10]
*89 Pin_out[11]
*90 Pin_out[12]
*91 Pin_out[13]
*92 Pin_out[14]
*93 Pin_out[15]
*94 Pin_out[1]
*95 Pin_out[2]
*96 Pin_out[3]
*97 Pin_out[4]
*98 Pin_out[5]
*99 Pin_out[6]
*100 Pin_out[7]
*101 Pin_out[8]
*102 Pin_out[9]
*105 clk
*106 reset
*107 _000_
*108 _001_
*109 _002_
*110 _003_
*111 _004_
*112 _005_
*113 _006_
*114 _007_
*115 _008_
*116 _009_
*117 _010_
*118 _011_
*119 _012_
*120 _013_
*121 _014_
*122 _015_
*123 _016_
*124 _017_
*125 _018_
*126 _019_
*127 _020_
*128 _021_
*129 _022_
*130 _023_
*131 _024_
*132 _025_
*133 _026_
*134 _027_
*135 _028_
*136 _029_
*137 _030_
*138 _031_
*139 _032_
*140 _033_
*141 _034_
*142 _035_
*143 _036_
*144 _037_
*145 _038_
*146 _039_
*147 _040_
*148 _041_
*149 _042_
*150 _043_
*151 _044_
*152 _045_
*153 _046_
*154 _047_
*155 _048_
*156 _049_
*157 _050_
*158 _051_
*159 _052_
*160 _053_
*161 _054_
*162 _055_
*163 _056_
*164 _057_
*165 _058_
*166 _059_
*167 _060_
*168 _061_
*169 _062_
*170 _063_
*171 _064_
*172 _065_
*173 _066_
*174 _067_
*175 _068_
*176 _069_
*177 _070_
*178 _071_
*179 _072_
*180 _073_
*181 _074_
*182 _075_
*183 _076_
*184 _077_
*185 _078_
*186 _079_
*187 _080_
*188 _081_
*189 _082_
*190 _083_
*191 _084_
*192 _085_
*193 _086_
*194 _087_
*195 _088_
*196 _089_
*197 _090_
*198 _091_
*199 _092_
*200 _093_
*201 _094_
*202 _095_
*203 _096_
*204 _097_
*205 _098_
*206 _099_
*207 _100_
*208 _101_
*209 _102_
*210 _103_
*211 _104_
*212 _105_
*213 _106_
*214 _107_
*215 _108_
*216 _109_
*217 _110_
*218 _111_
*219 _112_
*220 _113_
*221 _114_
*222 _115_
*223 _116_
*224 _117_
*225 _118_
*226 _119_
*227 _120_
*228 _121_
*229 _122_
*230 _123_
*231 _124_
*232 _125_
*233 _126_
*234 _127_
*235 _128_
*236 _129_
*237 _130_
*238 _131_
*239 _132_
*240 _133_
*241 _134_
*242 _135_
*243 _136_
*244 _137_
*245 _138_
*246 _139_
*247 _140_
*248 _141_
*249 _142_
*250 _143_
*251 _144_
*252 _145_
*253 _146_
*254 _147_
*255 _148_
*256 _149_
*257 _150_
*258 _151_
*259 _152_
*260 _153_
*261 _154_
*262 _155_
*263 _156_
*264 _157_
*265 _158_
*266 _159_
*267 _160_
*268 _161_
*269 _162_
*270 _163_
*271 _164_
*272 _165_
*273 _166_
*274 _167_
*275 _168_
*276 _169_
*277 _170_
*278 _171_
*279 _172_
*280 _173_
*281 _174_
*282 _175_
*283 _176_
*284 _177_
*285 _178_
*286 _179_
*287 _180_
*288 _181_
*289 _182_
*290 _183_
*291 _184_
*292 _185_
*293 _186_
*294 _187_
*295 _188_
*296 _189_
*297 _190_
*298 _191_
*299 _192_
*300 _193_
*301 clknet_0_clk
*302 clknet_3_0__leaf_clk
*303 clknet_3_1__leaf_clk
*304 clknet_3_2__leaf_clk
*305 clknet_3_3__leaf_clk
*306 clknet_3_4__leaf_clk
*307 clknet_3_5__leaf_clk
*308 clknet_3_6__leaf_clk
*309 clknet_3_7__leaf_clk
*310 gpio_instance_14\.Data_in
*311 gpio_instance_14\.Function
*312 gpio_instance_14\.IRQ_INT
*313 gpio_instance_14\.PIN_DATA_prev
*314 gpio_instance_14\.Pin_out
*315 gpio_instance_14\.enable_reg
*316 gpio_instance_14\.function_reg
*317 gpio_instance_14\.int_mask_reg\[0\]
*318 gpio_instance_14\.int_mask_reg\[1\]
*319 gpio_instance_14\.irq_detected
*320 gpio_instance_14\.pin_change_mask_reg
*321 gpio_instance_14\.pin_value
*322 gpio_instance_15\.Data_in
*323 gpio_instance_15\.Function
*324 gpio_instance_15\.IRQ_INT
*325 gpio_instance_15\.PIN_DATA_prev
*326 gpio_instance_15\.Pin_out
*327 gpio_instance_15\.function_reg
*328 gpio_instance_15\.irq_detected
*329 gpio_instance_15\.pin_change_mask_reg
*330 gpio_instance_15\.pin_value
*331 gpio_pins_0_13\[0\]\.gpio_instance\.Data_in
*332 gpio_pins_0_13\[0\]\.gpio_instance\.Pin_out
*333 gpio_pins_0_13\[0\]\.gpio_instance\.function_reg
*334 gpio_pins_0_13\[0\]\.gpio_instance\.pin_value
*335 gpio_pins_0_13\[10\]\.gpio_instance\.Data_in
*336 gpio_pins_0_13\[10\]\.gpio_instance\.Pin_out
*337 gpio_pins_0_13\[10\]\.gpio_instance\.function_reg
*338 gpio_pins_0_13\[10\]\.gpio_instance\.pin_value
*339 gpio_pins_0_13\[11\]\.gpio_instance\.Data_in
*340 gpio_pins_0_13\[11\]\.gpio_instance\.Pin_out
*341 gpio_pins_0_13\[11\]\.gpio_instance\.function_reg
*342 gpio_pins_0_13\[11\]\.gpio_instance\.pin_value
*343 gpio_pins_0_13\[12\]\.gpio_instance\.Data_in
*344 gpio_pins_0_13\[12\]\.gpio_instance\.Pin_out
*345 gpio_pins_0_13\[12\]\.gpio_instance\.function_reg
*346 gpio_pins_0_13\[12\]\.gpio_instance\.pin_value
*347 gpio_pins_0_13\[13\]\.gpio_instance\.Data_in
*348 gpio_pins_0_13\[13\]\.gpio_instance\.Pin_out
*349 gpio_pins_0_13\[13\]\.gpio_instance\.function_reg
*350 gpio_pins_0_13\[13\]\.gpio_instance\.pin_value
*351 gpio_pins_0_13\[1\]\.gpio_instance\.Data_in
*352 gpio_pins_0_13\[1\]\.gpio_instance\.Pin_out
*353 gpio_pins_0_13\[1\]\.gpio_instance\.function_reg
*354 gpio_pins_0_13\[1\]\.gpio_instance\.pin_value
*355 gpio_pins_0_13\[2\]\.gpio_instance\.Data_in
*356 gpio_pins_0_13\[2\]\.gpio_instance\.Pin_out
*357 gpio_pins_0_13\[2\]\.gpio_instance\.function_reg
*358 gpio_pins_0_13\[2\]\.gpio_instance\.pin_value
*359 gpio_pins_0_13\[3\]\.gpio_instance\.Data_in
*360 gpio_pins_0_13\[3\]\.gpio_instance\.Pin_out
*361 gpio_pins_0_13\[3\]\.gpio_instance\.function_reg
*362 gpio_pins_0_13\[3\]\.gpio_instance\.pin_value
*363 gpio_pins_0_13\[4\]\.gpio_instance\.Data_in
*364 gpio_pins_0_13\[4\]\.gpio_instance\.Pin_out
*365 gpio_pins_0_13\[4\]\.gpio_instance\.function_reg
*366 gpio_pins_0_13\[4\]\.gpio_instance\.pin_value
*367 gpio_pins_0_13\[5\]\.gpio_instance\.Data_in
*368 gpio_pins_0_13\[5\]\.gpio_instance\.Pin_out
*369 gpio_pins_0_13\[5\]\.gpio_instance\.function_reg
*370 gpio_pins_0_13\[5\]\.gpio_instance\.pin_value
*371 gpio_pins_0_13\[6\]\.gpio_instance\.Data_in
*372 gpio_pins_0_13\[6\]\.gpio_instance\.Pin_out
*373 gpio_pins_0_13\[6\]\.gpio_instance\.function_reg
*374 gpio_pins_0_13\[6\]\.gpio_instance\.pin_value
*375 gpio_pins_0_13\[7\]\.gpio_instance\.Data_in
*376 gpio_pins_0_13\[7\]\.gpio_instance\.Pin_out
*377 gpio_pins_0_13\[7\]\.gpio_instance\.function_reg
*378 gpio_pins_0_13\[7\]\.gpio_instance\.pin_value
*379 gpio_pins_0_13\[8\]\.gpio_instance\.Data_in
*380 gpio_pins_0_13\[8\]\.gpio_instance\.Pin_out
*381 gpio_pins_0_13\[8\]\.gpio_instance\.function_reg
*382 gpio_pins_0_13\[8\]\.gpio_instance\.pin_value
*383 gpio_pins_0_13\[9\]\.gpio_instance\.Data_in
*384 gpio_pins_0_13\[9\]\.gpio_instance\.Pin_out
*385 gpio_pins_0_13\[9\]\.gpio_instance\.function_reg
*386 gpio_pins_0_13\[9\]\.gpio_instance\.pin_value
*387 net1
*388 net10
*389 net11
*390 net12
*391 net13
*392 net14
*393 net15
*394 net16
*395 net17
*396 net18
*397 net19
*398 net2
*399 net20
*400 net21
*401 net22
*402 net23
*403 net24
*404 net25
*405 net26
*406 net27
*407 net28
*408 net29
*409 net3
*410 net30
*411 net31
*412 net32
*413 net33
*414 net34
*415 net35
*416 net36
*417 net37
*418 net38
*419 net39
*420 net4
*421 net40
*422 net41
*423 net42
*424 net43
*425 net44
*426 net45
*427 net46
*428 net47
*429 net48
*430 net49
*431 net5
*432 net50
*433 net51
*434 net52
*435 net53
*436 net54
*437 net55
*438 net56
*439 net57
*440 net58
*441 net59
*442 net6
*443 net60
*444 net61
*445 net62
*446 net63
*447 net64
*448 net65
*449 net66
*450 net67
*451 net68
*452 net69
*453 net7
*454 net70
*455 net71
*456 net72
*457 net73
*458 net8
*459 net9
*460 FILLER_0_104
*461 FILLER_0_111
*462 FILLER_0_113
*463 FILLER_0_121
*464 FILLER_0_125
*465 FILLER_0_133
*466 FILLER_0_139
*467 FILLER_0_141
*468 FILLER_0_146
*469 FILLER_0_15
*470 FILLER_0_154
*471 FILLER_0_160
*472 FILLER_0_169
*473 FILLER_0_27
*474 FILLER_0_29
*475 FILLER_0_3
*476 FILLER_0_41
*477 FILLER_0_49
*478 FILLER_0_55
*479 FILLER_0_57
*480 FILLER_0_62
*481 FILLER_0_69
*482 FILLER_0_79
*483 FILLER_0_83
*484 FILLER_0_85
*485 FILLER_0_90
*486 FILLER_0_98
*487 FILLER_10_100
*488 FILLER_10_11
*489 FILLER_10_112
*490 FILLER_10_124
*491 FILLER_10_136
*492 FILLER_10_166
*493 FILLER_10_172
*494 FILLER_10_18
*495 FILLER_10_189
*496 FILLER_10_26
*497 FILLER_10_54
*498 FILLER_10_66
*499 FILLER_10_78
*500 FILLER_10_88
*501 FILLER_11_107
*502 FILLER_11_111
*503 FILLER_11_113
*504 FILLER_11_125
*505 FILLER_11_155
*506 FILLER_11_165
*507 FILLER_11_169
*508 FILLER_11_191
*509 FILLER_11_23
*510 FILLER_11_35
*511 FILLER_11_39
*512 FILLER_11_51
*513 FILLER_11_55
*514 FILLER_11_77
*515 FILLER_11_89
*516 FILLER_11_95
*517 FILLER_12_10
*518 FILLER_12_116
*519 FILLER_12_128
*520 FILLER_12_141
*521 FILLER_12_165
*522 FILLER_12_173
*523 FILLER_12_178
*524 FILLER_12_18
*525 FILLER_12_186
*526 FILLER_12_22
*527 FILLER_12_29
*528 FILLER_12_41
*529 FILLER_12_47
*530 FILLER_12_6
*531 FILLER_12_72
*532 FILLER_13_105
*533 FILLER_13_111
*534 FILLER_13_113
*535 FILLER_13_117
*536 FILLER_13_121
*537 FILLER_13_129
*538 FILLER_13_151
*539 FILLER_13_163
*540 FILLER_13_167
*541 FILLER_13_192
*542 FILLER_13_28
*543 FILLER_13_53
*544 FILLER_13_57
*545 FILLER_13_6
*546 FILLER_13_69
*547 FILLER_13_81
*548 FILLER_13_93
*549 FILLER_14_109
*550 FILLER_14_121
*551 FILLER_14_133
*552 FILLER_14_139
*553 FILLER_14_141
*554 FILLER_14_159
*555 FILLER_14_16
*556 FILLER_14_167
*557 FILLER_14_191
*558 FILLER_14_29
*559 FILLER_14_41
*560 FILLER_14_53
*561 FILLER_14_65
*562 FILLER_14_77
*563 FILLER_14_83
*564 FILLER_14_85
*565 FILLER_14_97
*566 FILLER_15_102
*567 FILLER_15_110
*568 FILLER_15_113
*569 FILLER_15_125
*570 FILLER_15_137
*571 FILLER_15_163
*572 FILLER_15_167
*573 FILLER_15_169
*574 FILLER_15_181
*575 FILLER_15_188
*576 FILLER_15_23
*577 FILLER_15_31
*578 FILLER_15_52
*579 FILLER_15_66
*580 FILLER_15_78
*581 FILLER_15_90
*582 FILLER_16_109
*583 FILLER_16_121
*584 FILLER_16_13
*585 FILLER_16_133
*586 FILLER_16_139
*587 FILLER_16_141
*588 FILLER_16_153
*589 FILLER_16_160
*590 FILLER_16_17
*591 FILLER_16_171
*592 FILLER_16_182
*593 FILLER_16_186
*594 FILLER_16_24
*595 FILLER_16_29
*596 FILLER_16_47
*597 FILLER_16_6
*598 FILLER_16_71
*599 FILLER_16_83
*600 FILLER_16_85
*601 FILLER_16_97
*602 FILLER_17_109
*603 FILLER_17_113
*604 FILLER_17_125
*605 FILLER_17_131
*606 FILLER_17_143
*607 FILLER_17_154
*608 FILLER_17_169
*609 FILLER_17_192
*610 FILLER_17_23
*611 FILLER_17_27
*612 FILLER_17_48
*613 FILLER_17_57
*614 FILLER_17_69
*615 FILLER_17_81
*616 FILLER_18_109
*617 FILLER_18_15
*618 FILLER_18_161
*619 FILLER_18_173
*620 FILLER_18_186
*621 FILLER_18_27
*622 FILLER_18_29
*623 FILLER_18_3
*624 FILLER_18_41
*625 FILLER_18_53
*626 FILLER_18_65
*627 FILLER_18_77
*628 FILLER_18_83
*629 FILLER_18_85
*630 FILLER_18_97
*631 FILLER_19_105
*632 FILLER_19_111
*633 FILLER_19_113
*634 FILLER_19_125
*635 FILLER_19_148
*636 FILLER_19_15
*637 FILLER_19_159
*638 FILLER_19_167
*639 FILLER_19_169
*640 FILLER_19_181
*641 FILLER_19_188
*642 FILLER_19_24
*643 FILLER_19_36
*644 FILLER_19_48
*645 FILLER_19_57
*646 FILLER_19_69
*647 FILLER_19_81
*648 FILLER_19_9
*649 FILLER_19_93
*650 FILLER_1_100
*651 FILLER_1_136
*652 FILLER_1_140
*653 FILLER_1_162
*654 FILLER_1_18
*655 FILLER_1_192
*656 FILLER_1_26
*657 FILLER_1_54
*658 FILLER_1_57
*659 FILLER_1_6
*660 FILLER_1_88
*661 FILLER_1_92
*662 FILLER_1_96
*663 FILLER_20_109
*664 FILLER_20_121
*665 FILLER_20_133
*666 FILLER_20_164
*667 FILLER_20_191
*668 FILLER_20_3
*669 FILLER_20_58
*670 FILLER_20_70
*671 FILLER_20_82
*672 FILLER_20_85
*673 FILLER_20_97
*674 FILLER_21_10
*675 FILLER_21_105
*676 FILLER_21_111
*677 FILLER_21_113
*678 FILLER_21_125
*679 FILLER_21_157
*680 FILLER_21_165
*681 FILLER_21_176
*682 FILLER_21_18
*683 FILLER_21_182
*684 FILLER_21_186
*685 FILLER_21_23
*686 FILLER_21_29
*687 FILLER_21_36
*688 FILLER_21_57
*689 FILLER_21_69
*690 FILLER_21_81
*691 FILLER_21_93
*692 FILLER_22_109
*693 FILLER_22_121
*694 FILLER_22_133
*695 FILLER_22_139
*696 FILLER_22_144
*697 FILLER_22_168
*698 FILLER_22_17
*699 FILLER_22_172
*700 FILLER_22_25
*701 FILLER_22_3
*702 FILLER_22_38
*703 FILLER_22_42
*704 FILLER_22_63
*705 FILLER_22_75
*706 FILLER_22_83
*707 FILLER_22_85
*708 FILLER_22_97
*709 FILLER_23_108
*710 FILLER_23_113
*711 FILLER_23_124
*712 FILLER_23_136
*713 FILLER_23_140
*714 FILLER_23_147
*715 FILLER_23_155
*716 FILLER_23_164
*717 FILLER_23_169
*718 FILLER_23_173
*719 FILLER_23_187
*720 FILLER_23_23
*721 FILLER_23_55
*722 FILLER_23_57
*723 FILLER_23_72
*724 FILLER_23_84
*725 FILLER_23_96
*726 FILLER_24_109
*727 FILLER_24_12
*728 FILLER_24_121
*729 FILLER_24_131
*730 FILLER_24_135
*731 FILLER_24_139
*732 FILLER_24_141
*733 FILLER_24_16
*734 FILLER_24_180
*735 FILLER_24_188
*736 FILLER_24_29
*737 FILLER_24_41
*738 FILLER_24_52
*739 FILLER_24_6
*740 FILLER_24_79
*741 FILLER_24_83
*742 FILLER_24_85
*743 FILLER_25_109
*744 FILLER_25_113
*745 FILLER_25_121
*746 FILLER_25_15
*747 FILLER_25_162
*748 FILLER_25_189
*749 FILLER_25_20
*750 FILLER_25_42
*751 FILLER_25_54
*752 FILLER_25_57
*753 FILLER_25_6
*754 FILLER_25_65
*755 FILLER_25_97
*756 FILLER_26_102
*757 FILLER_26_127
*758 FILLER_26_139
*759 FILLER_26_144
*760 FILLER_26_148
*761 FILLER_26_155
*762 FILLER_26_167
*763 FILLER_26_26
*764 FILLER_26_29
*765 FILLER_26_79
*766 FILLER_26_83
*767 FILLER_26_90
*768 FILLER_27_116
*769 FILLER_27_122
*770 FILLER_27_134
*771 FILLER_27_146
*772 FILLER_27_150
*773 FILLER_27_157
*774 FILLER_27_165
*775 FILLER_27_169
*776 FILLER_27_18
*777 FILLER_27_191
*778 FILLER_27_24
*779 FILLER_27_33
*780 FILLER_27_45
*781 FILLER_27_57
*782 FILLER_27_6
*783 FILLER_27_90
*784 FILLER_28_110
*785 FILLER_28_124
*786 FILLER_28_136
*787 FILLER_28_161
*788 FILLER_28_173
*789 FILLER_28_18
*790 FILLER_28_182
*791 FILLER_28_26
*792 FILLER_28_29
*793 FILLER_28_41
*794 FILLER_28_53
*795 FILLER_28_6
*796 FILLER_28_62
*797 FILLER_28_74
*798 FILLER_28_80
*799 FILLER_28_85
*800 FILLER_28_97
*801 FILLER_29_103
*802 FILLER_29_111
*803 FILLER_29_113
*804 FILLER_29_119
*805 FILLER_29_12
*806 FILLER_29_128
*807 FILLER_29_132
*808 FILLER_29_144
*809 FILLER_29_156
*810 FILLER_29_165
*811 FILLER_29_189
*812 FILLER_29_25
*813 FILLER_29_3
*814 FILLER_29_37
*815 FILLER_29_45
*816 FILLER_29_54
*817 FILLER_29_57
*818 FILLER_29_80
*819 FILLER_29_91
*820 FILLER_2_105
*821 FILLER_2_113
*822 FILLER_2_164
*823 FILLER_2_172
*824 FILLER_2_183
*825 FILLER_2_191
*826 FILLER_2_23
*827 FILLER_2_27
*828 FILLER_2_32
*829 FILLER_2_44
*830 FILLER_2_71
*831 FILLER_2_75
*832 FILLER_30_105
*833 FILLER_30_116
*834 FILLER_30_138
*835 FILLER_30_161
*836 FILLER_30_165
*837 FILLER_30_174
*838 FILLER_30_191
*839 FILLER_30_27
*840 FILLER_30_32
*841 FILLER_30_6
*842 FILLER_30_78
*843 FILLER_30_96
*844 FILLER_31_116
*845 FILLER_31_124
*846 FILLER_31_133
*847 FILLER_31_139
*848 FILLER_31_145
*849 FILLER_31_15
*850 FILLER_31_156
*851 FILLER_31_192
*852 FILLER_31_3
*853 FILLER_31_37
*854 FILLER_31_42
*855 FILLER_31_46
*856 FILLER_31_53
*857 FILLER_31_64
*858 FILLER_31_69
*859 FILLER_32_107
*860 FILLER_32_111
*861 FILLER_32_113
*862 FILLER_32_118
*863 FILLER_32_126
*864 FILLER_32_132
*865 FILLER_32_139
*866 FILLER_32_141
*867 FILLER_32_146
*868 FILLER_32_15
*869 FILLER_32_153
*870 FILLER_32_161
*871 FILLER_32_167
*872 FILLER_32_169
*873 FILLER_32_175
*874 FILLER_32_191
*875 FILLER_32_27
*876 FILLER_32_29
*877 FILLER_32_3
*878 FILLER_32_41
*879 FILLER_32_48
*880 FILLER_32_55
*881 FILLER_32_57
*882 FILLER_32_62
*883 FILLER_32_69
*884 FILLER_32_77
*885 FILLER_32_83
*886 FILLER_32_90
*887 FILLER_32_97
*888 FILLER_3_111
*889 FILLER_3_113
*890 FILLER_3_129
*891 FILLER_3_13
*892 FILLER_3_135
*893 FILLER_3_147
*894 FILLER_3_157
*895 FILLER_3_169
*896 FILLER_3_21
*897 FILLER_3_3
*898 FILLER_3_49
*899 FILLER_3_55
*900 FILLER_3_57
*901 FILLER_3_67
*902 FILLER_3_78
*903 FILLER_3_87
*904 FILLER_3_99
*905 FILLER_4_102
*906 FILLER_4_113
*907 FILLER_4_117
*908 FILLER_4_126
*909 FILLER_4_138
*910 FILLER_4_141
*911 FILLER_4_169
*912 FILLER_4_181
*913 FILLER_4_187
*914 FILLER_4_21
*915 FILLER_4_27
*916 FILLER_4_35
*917 FILLER_4_47
*918 FILLER_4_73
*919 FILLER_4_81
*920 FILLER_4_85
*921 FILLER_4_94
*922 FILLER_5_133
*923 FILLER_5_145
*924 FILLER_5_152
*925 FILLER_5_158
*926 FILLER_5_166
*927 FILLER_5_169
*928 FILLER_5_181
*929 FILLER_5_185
*930 FILLER_5_189
*931 FILLER_5_3
*932 FILLER_5_30
*933 FILLER_5_38
*934 FILLER_5_54
*935 FILLER_5_57
*936 FILLER_5_63
*937 FILLER_6_103
*938 FILLER_6_109
*939 FILLER_6_117
*940 FILLER_6_127
*941 FILLER_6_135
*942 FILLER_6_161
*943 FILLER_6_169
*944 FILLER_6_17
*945 FILLER_6_191
*946 FILLER_6_25
*947 FILLER_6_55
*948 FILLER_6_91
*949 FILLER_7_10
*950 FILLER_7_105
*951 FILLER_7_111
*952 FILLER_7_113
*953 FILLER_7_121
*954 FILLER_7_147
*955 FILLER_7_157
*956 FILLER_7_16
*957 FILLER_7_165
*958 FILLER_7_172
*959 FILLER_7_185
*960 FILLER_7_189
*961 FILLER_7_26
*962 FILLER_7_38
*963 FILLER_7_50
*964 FILLER_7_57
*965 FILLER_7_69
*966 FILLER_7_93
*967 FILLER_8_103
*968 FILLER_8_115
*969 FILLER_8_119
*970 FILLER_8_150
*971 FILLER_8_156
*972 FILLER_8_177
*973 FILLER_8_191
*974 FILLER_8_23
*975 FILLER_8_27
*976 FILLER_8_35
*977 FILLER_8_47
*978 FILLER_8_68
*979 FILLER_8_76
*980 FILLER_8_82
*981 FILLER_8_85
*982 FILLER_8_91
*983 FILLER_9_100
*984 FILLER_9_113
*985 FILLER_9_121
*986 FILLER_9_130
*987 FILLER_9_142
*988 FILLER_9_146
*989 FILLER_9_163
*990 FILLER_9_167
*991 FILLER_9_169
*992 FILLER_9_18
*993 FILLER_9_181
*994 FILLER_9_188
*995 FILLER_9_41
*996 FILLER_9_45
*997 FILLER_9_49
*998 FILLER_9_55
*999 FILLER_9_6
*1000 FILLER_9_69
*1001 PHY_EDGE_ROW_0_Left_33
*1002 PHY_EDGE_ROW_0_Right_0
*1003 PHY_EDGE_ROW_10_Left_43
*1004 PHY_EDGE_ROW_10_Right_10
*1005 PHY_EDGE_ROW_11_Left_44
*1006 PHY_EDGE_ROW_11_Right_11
*1007 PHY_EDGE_ROW_12_Left_45
*1008 PHY_EDGE_ROW_12_Right_12
*1009 PHY_EDGE_ROW_13_Left_46
*1010 PHY_EDGE_ROW_13_Right_13
*1011 PHY_EDGE_ROW_14_Left_47
*1012 PHY_EDGE_ROW_14_Right_14
*1013 PHY_EDGE_ROW_15_Left_48
*1014 PHY_EDGE_ROW_15_Right_15
*1015 PHY_EDGE_ROW_16_Left_49
*1016 PHY_EDGE_ROW_16_Right_16
*1017 PHY_EDGE_ROW_17_Left_50
*1018 PHY_EDGE_ROW_17_Right_17
*1019 PHY_EDGE_ROW_18_Left_51
*1020 PHY_EDGE_ROW_18_Right_18
*1021 PHY_EDGE_ROW_19_Left_52
*1022 PHY_EDGE_ROW_19_Right_19
*1023 PHY_EDGE_ROW_1_Left_34
*1024 PHY_EDGE_ROW_1_Right_1
*1025 PHY_EDGE_ROW_20_Left_53
*1026 PHY_EDGE_ROW_20_Right_20
*1027 PHY_EDGE_ROW_21_Left_54
*1028 PHY_EDGE_ROW_21_Right_21
*1029 PHY_EDGE_ROW_22_Left_55
*1030 PHY_EDGE_ROW_22_Right_22
*1031 PHY_EDGE_ROW_23_Left_56
*1032 PHY_EDGE_ROW_23_Right_23
*1033 PHY_EDGE_ROW_24_Left_57
*1034 PHY_EDGE_ROW_24_Right_24
*1035 PHY_EDGE_ROW_25_Left_58
*1036 PHY_EDGE_ROW_25_Right_25
*1037 PHY_EDGE_ROW_26_Left_59
*1038 PHY_EDGE_ROW_26_Right_26
*1039 PHY_EDGE_ROW_27_Left_60
*1040 PHY_EDGE_ROW_27_Right_27
*1041 PHY_EDGE_ROW_28_Left_61
*1042 PHY_EDGE_ROW_28_Right_28
*1043 PHY_EDGE_ROW_29_Left_62
*1044 PHY_EDGE_ROW_29_Right_29
*1045 PHY_EDGE_ROW_2_Left_35
*1046 PHY_EDGE_ROW_2_Right_2
*1047 PHY_EDGE_ROW_30_Left_63
*1048 PHY_EDGE_ROW_30_Right_30
*1049 PHY_EDGE_ROW_31_Left_64
*1050 PHY_EDGE_ROW_31_Right_31
*1051 PHY_EDGE_ROW_32_Left_65
*1052 PHY_EDGE_ROW_32_Right_32
*1053 PHY_EDGE_ROW_3_Left_36
*1054 PHY_EDGE_ROW_3_Right_3
*1055 PHY_EDGE_ROW_4_Left_37
*1056 PHY_EDGE_ROW_4_Right_4
*1057 PHY_EDGE_ROW_5_Left_38
*1058 PHY_EDGE_ROW_5_Right_5
*1059 PHY_EDGE_ROW_6_Left_39
*1060 PHY_EDGE_ROW_6_Right_6
*1061 PHY_EDGE_ROW_7_Left_40
*1062 PHY_EDGE_ROW_7_Right_7
*1063 PHY_EDGE_ROW_8_Left_41
*1064 PHY_EDGE_ROW_8_Right_8
*1065 PHY_EDGE_ROW_9_Left_42
*1066 PHY_EDGE_ROW_9_Right_9
*1067 TAP_TAPCELL_ROW_0_66
*1068 TAP_TAPCELL_ROW_0_67
*1069 TAP_TAPCELL_ROW_0_68
*1070 TAP_TAPCELL_ROW_0_69
*1071 TAP_TAPCELL_ROW_0_70
*1072 TAP_TAPCELL_ROW_0_71
*1073 TAP_TAPCELL_ROW_10_100
*1074 TAP_TAPCELL_ROW_10_101
*1075 TAP_TAPCELL_ROW_10_99
*1076 TAP_TAPCELL_ROW_11_102
*1077 TAP_TAPCELL_ROW_11_103
*1078 TAP_TAPCELL_ROW_11_104
*1079 TAP_TAPCELL_ROW_12_105
*1080 TAP_TAPCELL_ROW_12_106
*1081 TAP_TAPCELL_ROW_12_107
*1082 TAP_TAPCELL_ROW_13_108
*1083 TAP_TAPCELL_ROW_13_109
*1084 TAP_TAPCELL_ROW_13_110
*1085 TAP_TAPCELL_ROW_14_111
*1086 TAP_TAPCELL_ROW_14_112
*1087 TAP_TAPCELL_ROW_14_113
*1088 TAP_TAPCELL_ROW_15_114
*1089 TAP_TAPCELL_ROW_15_115
*1090 TAP_TAPCELL_ROW_15_116
*1091 TAP_TAPCELL_ROW_16_117
*1092 TAP_TAPCELL_ROW_16_118
*1093 TAP_TAPCELL_ROW_16_119
*1094 TAP_TAPCELL_ROW_17_120
*1095 TAP_TAPCELL_ROW_17_121
*1096 TAP_TAPCELL_ROW_17_122
*1097 TAP_TAPCELL_ROW_18_123
*1098 TAP_TAPCELL_ROW_18_124
*1099 TAP_TAPCELL_ROW_18_125
*1100 TAP_TAPCELL_ROW_19_126
*1101 TAP_TAPCELL_ROW_19_127
*1102 TAP_TAPCELL_ROW_19_128
*1103 TAP_TAPCELL_ROW_1_72
*1104 TAP_TAPCELL_ROW_1_73
*1105 TAP_TAPCELL_ROW_1_74
*1106 TAP_TAPCELL_ROW_20_129
*1107 TAP_TAPCELL_ROW_20_130
*1108 TAP_TAPCELL_ROW_20_131
*1109 TAP_TAPCELL_ROW_21_132
*1110 TAP_TAPCELL_ROW_21_133
*1111 TAP_TAPCELL_ROW_21_134
*1112 TAP_TAPCELL_ROW_22_135
*1113 TAP_TAPCELL_ROW_22_136
*1114 TAP_TAPCELL_ROW_22_137
*1115 TAP_TAPCELL_ROW_23_138
*1116 TAP_TAPCELL_ROW_23_139
*1117 TAP_TAPCELL_ROW_23_140
*1118 TAP_TAPCELL_ROW_24_141
*1119 TAP_TAPCELL_ROW_24_142
*1120 TAP_TAPCELL_ROW_24_143
*1121 TAP_TAPCELL_ROW_25_144
*1122 TAP_TAPCELL_ROW_25_145
*1123 TAP_TAPCELL_ROW_25_146
*1124 TAP_TAPCELL_ROW_26_147
*1125 TAP_TAPCELL_ROW_26_148
*1126 TAP_TAPCELL_ROW_26_149
*1127 TAP_TAPCELL_ROW_27_150
*1128 TAP_TAPCELL_ROW_27_151
*1129 TAP_TAPCELL_ROW_27_152
*1130 TAP_TAPCELL_ROW_28_153
*1131 TAP_TAPCELL_ROW_28_154
*1132 TAP_TAPCELL_ROW_28_155
*1133 TAP_TAPCELL_ROW_29_156
*1134 TAP_TAPCELL_ROW_29_157
*1135 TAP_TAPCELL_ROW_29_158
*1136 TAP_TAPCELL_ROW_2_75
*1137 TAP_TAPCELL_ROW_2_76
*1138 TAP_TAPCELL_ROW_2_77
*1139 TAP_TAPCELL_ROW_30_159
*1140 TAP_TAPCELL_ROW_30_160
*1141 TAP_TAPCELL_ROW_30_161
*1142 TAP_TAPCELL_ROW_31_162
*1143 TAP_TAPCELL_ROW_31_163
*1144 TAP_TAPCELL_ROW_31_164
*1145 TAP_TAPCELL_ROW_32_165
*1146 TAP_TAPCELL_ROW_32_166
*1147 TAP_TAPCELL_ROW_32_167
*1148 TAP_TAPCELL_ROW_32_168
*1149 TAP_TAPCELL_ROW_32_169
*1150 TAP_TAPCELL_ROW_32_170
*1151 TAP_TAPCELL_ROW_3_78
*1152 TAP_TAPCELL_ROW_3_79
*1153 TAP_TAPCELL_ROW_3_80
*1154 TAP_TAPCELL_ROW_4_81
*1155 TAP_TAPCELL_ROW_4_82
*1156 TAP_TAPCELL_ROW_4_83
*1157 TAP_TAPCELL_ROW_5_84
*1158 TAP_TAPCELL_ROW_5_85
*1159 TAP_TAPCELL_ROW_5_86
*1160 TAP_TAPCELL_ROW_6_87
*1161 TAP_TAPCELL_ROW_6_88
*1162 TAP_TAPCELL_ROW_6_89
*1163 TAP_TAPCELL_ROW_7_90
*1164 TAP_TAPCELL_ROW_7_91
*1165 TAP_TAPCELL_ROW_7_92
*1166 TAP_TAPCELL_ROW_8_93
*1167 TAP_TAPCELL_ROW_8_94
*1168 TAP_TAPCELL_ROW_8_95
*1169 TAP_TAPCELL_ROW_9_96
*1170 TAP_TAPCELL_ROW_9_97
*1171 TAP_TAPCELL_ROW_9_98
*1172 _194_
*1173 _195_
*1174 _196_
*1175 _197_
*1176 _198_
*1177 _199_
*1178 _200_
*1179 _201_
*1180 _202_
*1181 _203_
*1182 _204_
*1183 _205_
*1184 _206_
*1185 _207_
*1186 _208_
*1187 _209_
*1188 _210_
*1189 _211_
*1190 _212_
*1191 _213_
*1192 _214_
*1193 _215_
*1194 _216_
*1195 _217_
*1196 _218_
*1197 _219_
*1198 _220_
*1199 _221_
*1200 _222_
*1201 _223_
*1202 _224_
*1203 _225_
*1204 _226_
*1205 _227_
*1206 _228_
*1207 _229_
*1208 _230_
*1209 _231_
*1210 _232_
*1211 _233_
*1212 _234_
*1213 _235_
*1214 _236_
*1215 _237_
*1216 _238_
*1217 _239_
*1218 _240_
*1219 _241_
*1220 _242_
*1221 _243_
*1222 _244_
*1223 _245_
*1224 _246_
*1225 _247_
*1226 _248_
*1227 _249_
*1228 _250_
*1229 _251_
*1230 _252_
*1231 _253_
*1232 _254_
*1233 _255_
*1234 _256_
*1235 _257_
*1236 _258_
*1237 _259_
*1238 _260_
*1239 _261_
*1240 _262_
*1241 _263_
*1242 _264_
*1243 _265_
*1244 _266_
*1245 _267_
*1246 _268_
*1247 _269_
*1248 _270_
*1249 _271_
*1250 _272_
*1251 _273_
*1252 _274_
*1253 _275_
*1254 _276_
*1255 _277_
*1256 _278_
*1257 _279_
*1258 _280_
*1259 _281_
*1260 _282_
*1261 _283_
*1262 _284_
*1263 _285_
*1264 _286_
*1265 _287_
*1266 _288_
*1267 _289_
*1268 _290_
*1269 _291_
*1270 _292_
*1271 _293_
*1272 _294_
*1273 _295_
*1274 _296_
*1275 _297_
*1276 _298_
*1277 _299_
*1278 _300_
*1279 _301_
*1280 _302_
*1281 _303_
*1282 _304_
*1283 _305_
*1284 _306_
*1285 _307_
*1286 _308_
*1287 _309_
*1288 _310_
*1289 _311_
*1290 _312_
*1291 _313_
*1292 _314_
*1293 _315_
*1294 _316_
*1295 _317_
*1296 _318_
*1297 _319_
*1298 _320_
*1299 _321_
*1300 _322_
*1301 _323_
*1302 _324_
*1303 _325_
*1304 _326_
*1305 _327_
*1306 _328_
*1307 _329_
*1308 _330_
*1309 _331_
*1310 _332_
*1311 _333_
*1312 _334_
*1313 _335_
*1314 _336_
*1315 _337_
*1316 _338_
*1317 _339_
*1318 _340_
*1319 _341_
*1320 _342_
*1321 _343_
*1322 _344_
*1323 _345_
*1324 _346_
*1325 _347_
*1326 _348_
*1327 _349_
*1328 _350_
*1329 _351_
*1330 _352_
*1331 _353_
*1332 _354_
*1333 _355_
*1334 _356_
*1335 _357_
*1336 _358_
*1337 _359_
*1338 _360_
*1339 _361_
*1340 _362_
*1341 _363_
*1342 _364_
*1343 _365_
*1344 _366_
*1345 _367_
*1346 _368_
*1347 _369_
*1348 _370_
*1349 _371_
*1350 _372_
*1351 _373_
*1352 _374_
*1353 _375_
*1354 _376_
*1355 _377_
*1356 _378_
*1357 _379_
*1358 _380_
*1359 _381_
*1360 _382_
*1361 _383_
*1362 _384_
*1363 _385_
*1364 _386_
*1365 _387_
*1366 _388_
*1367 _389_
*1368 _390_
*1369 _391_
*1370 _392_
*1371 _393_
*1372 _394_
*1373 _395_
*1374 _396_
*1375 _397_
*1376 _398_
*1377 _399_
*1378 _400_
*1379 _401_
*1380 _402_
*1381 _403_
*1382 _404_
*1383 _405_
*1384 _406_
*1385 _407_
*1386 _408_
*1387 _409_
*1388 _410_
*1389 _411_
*1390 _412_
*1391 _413_
*1392 _414_
*1393 _415_
*1394 _416_
*1395 _417_
*1396 _418_
*1397 _419_
*1398 _420_
*1399 _421_
*1400 _422_
*1401 _423_
*1402 _424_
*1403 _425_
*1404 _426_
*1405 _427_
*1406 _428_
*1407 _429_
*1408 _430_
*1409 _431_
*1410 _432_
*1411 _433_
*1412 _434_
*1413 _435_
*1414 _436_
*1415 _437_
*1416 _438_
*1417 _439_
*1418 _440_
*1419 _441_
*1420 _442_
*1421 _443_
*1422 _444_
*1423 _445_
*1424 _446_
*1425 _447_
*1426 _448_
*1427 _449_
*1428 _450_
*1429 _451_
*1430 _452_
*1431 _453_
*1432 _454_
*1433 _455_
*1434 _456_
*1435 _457_
*1436 _458_
*1437 _459_
*1438 _460_
*1439 _461_
*1440 _462_
*1441 _463_
*1442 _464_
*1443 _465_
*1444 _466_
*1445 _467_
*1446 _468_
*1447 _469_
*1448 _470_
*1449 _471_
*1450 _472_
*1451 _473_
*1452 _474_
*1453 _475_
*1454 _476_
*1455 _477_
*1456 _478_
*1457 _479_
*1458 _480_
*1459 _481_
*1460 _482_
*1461 _483_
*1462 _484_
*1463 _485_
*1464 _486_
*1465 _487_
*1466 _488_
*1467 _489_
*1468 _490_
*1469 _491_
*1470 _492_
*1471 _493_
*1472 _494_
*1473 _495_
*1474 _496_
*1475 _497_
*1476 _498_
*1477 _499_
*1478 _500_
*1479 _501_
*1480 _502_
*1481 _503_
*1482 _504_
*1483 _505_
*1484 _506_
*1485 _507_
*1486 _508_
*1487 _509_
*1488 _510_
*1489 _511_
*1490 _512_
*1491 _513_
*1492 _514_
*1493 _515_
*1494 clkbuf_0_clk
*1495 clkbuf_3_0__f_clk
*1496 clkbuf_3_1__f_clk
*1497 clkbuf_3_2__f_clk
*1498 clkbuf_3_3__f_clk
*1499 clkbuf_3_4__f_clk
*1500 clkbuf_3_5__f_clk
*1501 clkbuf_3_6__f_clk
*1502 clkbuf_3_7__f_clk
*1503 clkload0
*1504 clkload1
*1505 clkload2
*1506 clkload3
*1507 clkload4
*1508 clkload5
*1509 clkload6
*1510 input1
*1511 input10
*1512 input11
*1513 input12
*1514 input13
*1515 input14
*1516 input15
*1517 input16
*1518 input17
*1519 input18
*1520 input19
*1521 input2
*1522 input20
*1523 input21
*1524 input22
*1525 input23
*1526 input24
*1527 input25
*1528 input26
*1529 input27
*1530 input28
*1531 input29
*1532 input3
*1533 input30
*1534 input31
*1535 input32
*1536 input33
*1537 input34
*1538 input35
*1539 input36
*1540 input37
*1541 input38
*1542 input4
*1543 input5
*1544 input6
*1545 input7
*1546 input8
*1547 input9
*1548 output39
*1549 output40
*1550 output41
*1551 output42
*1552 output43
*1553 output44
*1554 output45
*1555 output46
*1556 output47
*1557 output48
*1558 output49
*1559 output50
*1560 output51
*1561 output52
*1562 output53
*1563 output54
*1564 output55
*1565 output56
*1566 output57
*1567 output58
*1568 output59
*1569 output60
*1570 output61
*1571 output62
*1572 output63
*1573 output64
*1574 output65
*1575 output66
*1576 output67
*1577 output68
*1578 output69
*1579 output70
*1580 output71
*1581 output72
*1582 output73

*PORTS
Data_in[0] O
Data_in[10] O
Data_in[11] O
Data_in[12] O
Data_in[13] O
Data_in[14] O
Data_in[15] O
Data_in[1] O
Data_in[2] O
Data_in[3] O
Data_in[4] O
Data_in[5] O
Data_in[6] O
Data_in[7] O
Data_in[8] O
Data_in[9] O
Data_out[0] I
Data_out[10] I
Data_out[11] I
Data_out[12] I
Data_out[13] I
Data_out[14] I
Data_out[15] I
Data_out[1] I
Data_out[2] I
Data_out[3] I
Data_out[4] I
Data_out[5] I
Data_out[6] I
Data_out[7] I
Data_out[8] I
Data_out[9] I
Enable I
Function[0] I
Function[10] I
Function[11] I
Function[12] I
Function[13] I
Function[14] I
Function[15] I
Function[1] I
Function[2] I
Function[3] I
Function[4] I
Function[5] I
Function[6] I
Function[7] I
Function[8] I
Function[9] I
IRQ_INT[0] O
IRQ_INT[1] O
IRQ_PIN_CHANGE O
Int_Mask[0] I
Int_Mask[1] I
PIN_DATA[0] I
PIN_DATA[10] I
PIN_DATA[11] I
PIN_DATA[12] I
PIN_DATA[13] I
PIN_DATA[14] I
PIN_DATA[15] I
PIN_DATA[1] I
PIN_DATA[2] I
PIN_DATA[3] I
PIN_DATA[4] I
PIN_DATA[5] I
PIN_DATA[6] I
PIN_DATA[7] I
PIN_DATA[8] I
PIN_DATA[9] I
Pin_Change_Mask[0] I
Pin_Change_Mask[10] I
Pin_Change_Mask[11] I
Pin_Change_Mask[12] I
Pin_Change_Mask[13] I
Pin_Change_Mask[14] I
Pin_Change_Mask[15] I